<?xml version="1.0" encoding="UTF-8"?>

<!-- generated on Wed Jun 13 12:35:28 2018 by SUMO Version 0.32.0
<?xml version="1.0" encoding="UTF-8"?>

<configuration xmlns:xsi="http://www.w3.org/2001/XMLSchema-instance" xsi:noNamespaceSchemaLocation="http://sumo.dlr.de/xsd/sumoConfiguration.xsd">

    <input>
        <net-file value="data/test.net.xml"/>
        <route-files value="data/test_604800.rou.xml"/>
        <additional-files value="data/test.add.xml"/>
    </input>

    <time>
        <begin value="0"/>
        <end value="300"/>
    </time>

    <traci_server>
        <remote-port value="8873"/>
    </traci_server>

    <gui_only>
        <gui-settings-file value="data/test.settings.xml"/>
    </gui_only>

</configuration>
-->

<e3Detector xmlns:xsi="http://www.w3.org/2001/XMLSchema-instance" xsi:noNamespaceSchemaLocation="http://sumo.dlr.de/xsd/det_e3_file.xsd">
   <interval begin="0.00" end="100.00" id="e_10" meanTravelTime="66.69" meanOverlapTravelTime="81.70" meanSpeed="5.95" meanHaltsPerVehicle="30.60" meanTimeLoss="37.42" vehicleSum="5" meanSpeedWithin="8.44" meanHaltsPerVehicleWithin="5.14" meanDurationWithin="39.49" vehicleSumWithin="14" meanIntervalSpeedWithin="8.44" meanIntervalHaltsPerVehicleWithin="5.14" meanIntervalDurationWithin="39.49" meanTimeLossWithin="9.01"/>
   <interval begin="0.00" end="100.00" id="e_20" meanTravelTime="48.20" meanOverlapTravelTime="48.95" meanSpeed="9.88" meanHaltsPerVehicle="0.00" meanTimeLoss="4.66" vehicleSum="7" meanSpeedWithin="8.81" meanHaltsPerVehicleWithin="1.56" meanDurationWithin="33.65" vehicleSumWithin="16" meanIntervalSpeedWithin="8.81" meanIntervalHaltsPerVehicleWithin="1.56" meanIntervalDurationWithin="33.65" meanTimeLossWithin="4.68"/>
   <interval begin="0.00" end="100.00" id="e_30" meanTravelTime="62.05" meanOverlapTravelTime="75.44" meanSpeed="6.46" meanHaltsPerVehicle="24.20" meanTimeLoss="31.13" vehicleSum="5" meanSpeedWithin="8.62" meanHaltsPerVehicleWithin="4.14" meanDurationWithin="39.84" vehicleSumWithin="14" meanIntervalSpeedWithin="8.62" meanIntervalHaltsPerVehicleWithin="4.14" meanIntervalDurationWithin="39.84" meanTimeLossWithin="8.68"/>
   <interval begin="0.00" end="100.00" id="e_40" meanTravelTime="48.17" meanOverlapTravelTime="48.64" meanSpeed="9.88" meanHaltsPerVehicle="0.00" meanTimeLoss="4.20" vehicleSum="5" meanSpeedWithin="8.42" meanHaltsPerVehicleWithin="2.07" meanDurationWithin="34.86" vehicleSumWithin="14" meanIntervalSpeedWithin="8.42" meanIntervalHaltsPerVehicleWithin="2.07" meanIntervalDurationWithin="34.86" meanTimeLossWithin="5.49"/>
   <interval begin="100.00" end="200.00" id="e_10" meanTravelTime="64.50" meanOverlapTravelTime="71.43" meanSpeed="7.32" meanHaltsPerVehicle="20.10" meanTimeLoss="27.16" vehicleSum="21" meanSpeedWithin="8.69" meanHaltsPerVehicleWithin="0.88" meanDurationWithin="35.72" vehicleSumWithin="8" meanIntervalSpeedWithin="8.69" meanIntervalHaltsPerVehicleWithin="0.88" meanIntervalDurationWithin="35.72" meanTimeLossWithin="4.17"/>
   <interval begin="100.00" end="200.00" id="e_20" meanTravelTime="64.39" meanOverlapTravelTime="69.42" meanSpeed="7.23" meanHaltsPerVehicle="17.30" meanTimeLoss="25.13" vehicleSum="23" meanSpeedWithin="7.36" meanHaltsPerVehicleWithin="8.59" meanDurationWithin="41.61" vehicleSumWithin="17" meanIntervalSpeedWithin="7.36" meanIntervalHaltsPerVehicleWithin="8.59" meanIntervalDurationWithin="41.61" meanTimeLossWithin="12.13"/>
   <interval begin="100.00" end="200.00" id="e_30" meanTravelTime="64.91" meanOverlapTravelTime="70.45" meanSpeed="7.36" meanHaltsPerVehicle="18.52" meanTimeLoss="26.18" vehicleSum="21" meanSpeedWithin="9.05" meanHaltsPerVehicleWithin="0.54" meanDurationWithin="31.50" vehicleSumWithin="13" meanIntervalSpeedWithin="9.05" meanIntervalHaltsPerVehicleWithin="0.54" meanIntervalDurationWithin="31.50" meanTimeLossWithin="3.99"/>
   <interval begin="100.00" end="200.00" id="e_40" meanTravelTime="64.81" meanOverlapTravelTime="71.12" meanSpeed="7.25" meanHaltsPerVehicle="19.50" meanTimeLoss="26.86" vehicleSum="18" meanSpeedWithin="8.50" meanHaltsPerVehicleWithin="5.29" meanDurationWithin="41.59" vehicleSumWithin="14" meanIntervalSpeedWithin="8.50" meanIntervalHaltsPerVehicleWithin="5.29" meanIntervalDurationWithin="41.59" meanTimeLossWithin="8.96"/>
   <interval begin="200.00" end="300.00" id="e_10" meanTravelTime="63.14" meanOverlapTravelTime="70.44" meanSpeed="7.36" meanHaltsPerVehicle="19.75" meanTimeLoss="26.20" vehicleSum="16" meanSpeedWithin="8.50" meanHaltsPerVehicleWithin="0.08" meanDurationWithin="23.86" vehicleSumWithin="12" meanIntervalSpeedWithin="8.50" meanIntervalHaltsPerVehicleWithin="0.08" meanIntervalDurationWithin="23.86" meanTimeLossWithin="2.63"/>
   <interval begin="200.00" end="300.00" id="e_20" meanTravelTime="62.73" meanOverlapTravelTime="68.00" meanSpeed="7.67" meanHaltsPerVehicle="17.09" meanTimeLoss="23.75" vehicleSum="22" meanSpeedWithin="8.45" meanHaltsPerVehicleWithin="6.30" meanDurationWithin="41.39" vehicleSumWithin="10" meanIntervalSpeedWithin="8.45" meanIntervalHaltsPerVehicleWithin="6.30" meanIntervalDurationWithin="41.39" meanTimeLossWithin="9.75"/>
   <interval begin="200.00" end="300.00" id="e_30" meanTravelTime="67.44" meanOverlapTravelTime="73.09" meanSpeed="7.05" meanHaltsPerVehicle="21.09" meanTimeLoss="28.86" vehicleSum="23" meanSpeedWithin="9.46" meanHaltsPerVehicleWithin="0.09" meanDurationWithin="37.30" vehicleSumWithin="11" meanIntervalSpeedWithin="9.46" meanIntervalHaltsPerVehicleWithin="0.09" meanIntervalDurationWithin="37.30" meanTimeLossWithin="4.19"/>
   <interval begin="200.00" end="300.00" id="e_40" meanTravelTime="64.91" meanOverlapTravelTime="73.55" meanSpeed="6.81" meanHaltsPerVehicle="22.00" meanTimeLoss="29.25" vehicleSum="14" meanSpeedWithin="7.40" meanHaltsPerVehicleWithin="7.64" meanDurationWithin="36.95" vehicleSumWithin="11" meanIntervalSpeedWithin="7.40" meanIntervalHaltsPerVehicleWithin="7.64" meanIntervalDurationWithin="36.95" meanTimeLossWithin="10.75"/>
   <interval begin="300.00" end="400.00" id="e_10" meanTravelTime="72.46" meanOverlapTravelTime="78.61" meanSpeed="6.58" meanHaltsPerVehicle="26.86" meanTimeLoss="34.29" vehicleSum="21" meanSpeedWithin="9.25" meanHaltsPerVehicleWithin="1.09" meanDurationWithin="35.26" vehicleSumWithin="11" meanIntervalSpeedWithin="9.25" meanIntervalHaltsPerVehicleWithin="1.09" meanIntervalDurationWithin="35.26" meanTimeLossWithin="4.48"/>
   <interval begin="300.00" end="400.00" id="e_20" meanTravelTime="56.97" meanOverlapTravelTime="64.20" meanSpeed="7.94" meanHaltsPerVehicle="13.90" meanTimeLoss="19.96" vehicleSum="10" meanSpeedWithin="7.04" meanHaltsPerVehicleWithin="17.95" meanDurationWithin="56.99" vehicleSumWithin="20" meanIntervalSpeedWithin="7.04" meanIntervalHaltsPerVehicleWithin="17.95" meanIntervalDurationWithin="56.99" meanTimeLossWithin="21.93"/>
   <interval begin="300.00" end="400.00" id="e_30" meanTravelTime="80.37" meanOverlapTravelTime="90.10" meanSpeed="5.82" meanHaltsPerVehicle="37.20" meanTimeLoss="45.80" vehicleSum="15" meanSpeedWithin="8.01" meanHaltsPerVehicleWithin="8.25" meanDurationWithin="44.19" vehicleSumWithin="12" meanIntervalSpeedWithin="8.01" meanIntervalHaltsPerVehicleWithin="8.25" meanIntervalDurationWithin="44.19" meanTimeLossWithin="13.31"/>
   <interval begin="300.00" end="400.00" id="e_40" meanTravelTime="54.72" meanOverlapTravelTime="63.39" meanSpeed="8.16" meanHaltsPerVehicle="12.83" meanTimeLoss="19.12" vehicleSum="12" meanSpeedWithin="6.85" meanHaltsPerVehicleWithin="15.21" meanDurationWithin="50.60" vehicleSumWithin="19" meanIntervalSpeedWithin="6.85" meanIntervalHaltsPerVehicleWithin="15.21" meanIntervalDurationWithin="50.60" meanTimeLossWithin="18.97"/>
   <interval begin="400.00" end="500.00" id="e_10" meanTravelTime="73.44" meanOverlapTravelTime="81.33" meanSpeed="6.50" meanHaltsPerVehicle="29.88" meanTimeLoss="37.03" vehicleSum="16" meanSpeedWithin="8.30" meanHaltsPerVehicleWithin="2.53" meanDurationWithin="29.45" vehicleSumWithin="15" meanIntervalSpeedWithin="8.30" meanIntervalHaltsPerVehicleWithin="2.53" meanIntervalDurationWithin="29.45" meanTimeLossWithin="5.42"/>
   <interval begin="400.00" end="500.00" id="e_20" meanTravelTime="74.33" meanOverlapTravelTime="84.99" meanSpeed="6.01" meanHaltsPerVehicle="32.23" meanTimeLoss="40.72" vehicleSum="22" meanSpeedWithin="7.89" meanHaltsPerVehicleWithin="2.42" meanDurationWithin="31.28" vehicleSumWithin="12" meanIntervalSpeedWithin="7.89" meanIntervalHaltsPerVehicleWithin="2.42" meanIntervalDurationWithin="31.28" meanTimeLossWithin="5.84"/>
   <interval begin="400.00" end="500.00" id="e_30" meanTravelTime="89.48" meanOverlapTravelTime="97.09" meanSpeed="5.89" meanHaltsPerVehicle="43.29" meanTimeLoss="52.81" vehicleSum="17" meanSpeedWithin="7.94" meanHaltsPerVehicleWithin="8.16" meanDurationWithin="50.07" vehicleSumWithin="19" meanIntervalSpeedWithin="7.94" meanIntervalHaltsPerVehicleWithin="8.16" meanIntervalDurationWithin="50.07" meanTimeLossWithin="14.25"/>
   <interval begin="400.00" end="500.00" id="e_40" meanTravelTime="65.90" meanOverlapTravelTime="75.76" meanSpeed="6.85" meanHaltsPerVehicle="25.05" meanTimeLoss="31.44" vehicleSum="21" meanSpeedWithin="7.91" meanHaltsPerVehicleWithin="11.75" meanDurationWithin="48.57" vehicleSumWithin="4" meanIntervalSpeedWithin="7.91" meanIntervalHaltsPerVehicleWithin="11.75" meanIntervalDurationWithin="48.57" meanTimeLossWithin="16.32"/>
   <interval begin="500.00" end="600.00" id="e_10" meanTravelTime="71.78" meanOverlapTravelTime="78.94" meanSpeed="6.37" meanHaltsPerVehicle="25.74" meanTimeLoss="34.69" vehicleSum="19" meanSpeedWithin="8.05" meanHaltsPerVehicleWithin="5.86" meanDurationWithin="41.73" vehicleSumWithin="22" meanIntervalSpeedWithin="8.05" meanIntervalHaltsPerVehicleWithin="5.86" meanIntervalDurationWithin="41.73" meanTimeLossWithin="10.28"/>
   <interval begin="500.00" end="600.00" id="e_20" meanTravelTime="64.18" meanOverlapTravelTime="70.38" meanSpeed="7.42" meanHaltsPerVehicle="19.71" meanTimeLoss="26.04" vehicleSum="17" meanSpeedWithin="9.23" meanHaltsPerVehicleWithin="0.50" meanDurationWithin="32.12" vehicleSumWithin="12" meanIntervalSpeedWithin="9.23" meanIntervalHaltsPerVehicleWithin="0.50" meanIntervalDurationWithin="32.12" meanTimeLossWithin="3.52"/>
   <interval begin="500.00" end="600.00" id="e_30" meanTravelTime="96.59" meanOverlapTravelTime="104.33" meanSpeed="5.30" meanHaltsPerVehicle="50.00" meanTimeLoss="60.02" vehicleSum="17" meanSpeedWithin="6.02" meanHaltsPerVehicleWithin="29.35" meanDurationWithin="71.20" vehicleSumWithin="17" meanIntervalSpeedWithin="5.56" meanIntervalHaltsPerVehicleWithin="29.29" meanIntervalDurationWithin="63.47" meanTimeLossWithin="36.05"/>
   <interval begin="500.00" end="600.00" id="e_40" meanTravelTime="63.63" meanOverlapTravelTime="69.60" meanSpeed="7.14" meanHaltsPerVehicle="18.14" meanTimeLoss="25.34" vehicleSum="14" meanSpeedWithin="8.42" meanHaltsPerVehicleWithin="4.11" meanDurationWithin="46.35" vehicleSumWithin="9" meanIntervalSpeedWithin="8.42" meanIntervalHaltsPerVehicleWithin="4.11" meanIntervalDurationWithin="46.35" meanTimeLossWithin="9.87"/>
   <interval begin="600.00" end="700.00" id="e_10" meanTravelTime="80.86" meanOverlapTravelTime="86.92" meanSpeed="5.92" meanHaltsPerVehicle="33.76" meanTimeLoss="42.63" vehicleSum="21" meanSpeedWithin="6.90" meanHaltsPerVehicleWithin="18.79" meanDurationWithin="59.56" vehicleSumWithin="24" meanIntervalSpeedWithin="6.85" meanIntervalHaltsPerVehicleWithin="18.79" meanIntervalDurationWithin="58.25" meanTimeLossWithin="24.35"/>
   <interval begin="600.00" end="700.00" id="e_20" meanTravelTime="61.43" meanOverlapTravelTime="68.42" meanSpeed="7.60" meanHaltsPerVehicle="17.89" meanTimeLoss="24.08" vehicleSum="19" meanSpeedWithin="8.08" meanHaltsPerVehicleWithin="2.15" meanDurationWithin="29.06" vehicleSumWithin="13" meanIntervalSpeedWithin="8.08" meanIntervalHaltsPerVehicleWithin="2.15" meanIntervalDurationWithin="29.06" meanTimeLossWithin="5.15"/>
   <interval begin="600.00" end="700.00" id="e_30" meanTravelTime="109.71" meanOverlapTravelTime="122.09" meanSpeed="5.19" meanHaltsPerVehicle="67.09" meanTimeLoss="77.85" vehicleSum="11" meanSpeedWithin="6.26" meanHaltsPerVehicleWithin="37.16" meanDurationWithin="81.70" vehicleSumWithin="25" meanIntervalSpeedWithin="5.75" meanIntervalHaltsPerVehicleWithin="32.96" meanIntervalDurationWithin="66.76" meanTimeLossWithin="38.41"/>
   <interval begin="600.00" end="700.00" id="e_40" meanTravelTime="54.76" meanOverlapTravelTime="60.42" meanSpeed="8.31" meanHaltsPerVehicle="9.50" meanTimeLoss="16.13" vehicleSum="18" meanSpeedWithin="8.51" meanHaltsPerVehicleWithin="0.10" meanDurationWithin="22.99" vehicleSumWithin="10" meanIntervalSpeedWithin="8.51" meanIntervalHaltsPerVehicleWithin="0.10" meanIntervalDurationWithin="22.99" meanTimeLossWithin="2.68"/>
   <interval begin="700.00" end="800.00" id="e_10" meanTravelTime="90.97" meanOverlapTravelTime="96.85" meanSpeed="5.38" meanHaltsPerVehicle="41.88" meanTimeLoss="52.49" vehicleSum="25" meanSpeedWithin="8.65" meanHaltsPerVehicleWithin="5.67" meanDurationWithin="42.00" vehicleSumWithin="12" meanIntervalSpeedWithin="8.65" meanIntervalHaltsPerVehicleWithin="5.67" meanIntervalDurationWithin="42.00" meanTimeLossWithin="9.07"/>
   <interval begin="700.00" end="800.00" id="e_20" meanTravelTime="69.46" meanOverlapTravelTime="76.13" meanSpeed="6.81" meanHaltsPerVehicle="24.55" meanTimeLoss="31.84" vehicleSum="20" meanSpeedWithin="8.55" meanHaltsPerVehicleWithin="1.80" meanDurationWithin="31.64" vehicleSumWithin="15" meanIntervalSpeedWithin="8.55" meanIntervalHaltsPerVehicleWithin="1.80" meanIntervalDurationWithin="31.64" meanTimeLossWithin="5.74"/>
   <interval begin="700.00" end="800.00" id="e_30" meanTravelTime="114.26" meanOverlapTravelTime="123.50" meanSpeed="5.18" meanHaltsPerVehicle="68.94" meanTimeLoss="79.15" vehicleSum="16" meanSpeedWithin="5.74" meanHaltsPerVehicleWithin="46.03" meanDurationWithin="85.85" vehicleSumWithin="29" meanIntervalSpeedWithin="5.03" meanIntervalHaltsPerVehicleWithin="37.83" meanIntervalDurationWithin="63.06" meanTimeLossWithin="41.61"/>
   <interval begin="700.00" end="800.00" id="e_40" meanTravelTime="77.50" meanOverlapTravelTime="85.36" meanSpeed="5.97" meanHaltsPerVehicle="32.75" meanTimeLoss="41.06" vehicleSum="16" meanSpeedWithin="8.57" meanHaltsPerVehicleWithin="0.67" meanDurationWithin="29.62" vehicleSumWithin="9" meanIntervalSpeedWithin="8.57" meanIntervalHaltsPerVehicleWithin="0.67" meanIntervalDurationWithin="29.62" meanTimeLossWithin="4.12"/>
   <interval begin="800.00" end="900.00" id="e_10" meanTravelTime="65.15" meanOverlapTravelTime="75.00" meanSpeed="6.75" meanHaltsPerVehicle="22.64" meanTimeLoss="30.74" vehicleSum="11" meanSpeedWithin="7.22" meanHaltsPerVehicleWithin="13.73" meanDurationWithin="46.91" vehicleSumWithin="15" meanIntervalSpeedWithin="7.21" meanIntervalHaltsPerVehicleWithin="13.67" meanIntervalDurationWithin="46.35" meanTimeLossWithin="17.28"/>
   <interval begin="800.00" end="900.00" id="e_20" meanTravelTime="73.12" meanOverlapTravelTime="77.99" meanSpeed="6.49" meanHaltsPerVehicle="24.12" meanTimeLoss="33.72" vehicleSum="26" meanSpeedWithin="8.41" meanHaltsPerVehicleWithin="1.83" meanDurationWithin="34.19" vehicleSumWithin="12" meanIntervalSpeedWithin="8.41" meanIntervalHaltsPerVehicleWithin="1.83" meanIntervalDurationWithin="34.19" meanTimeLossWithin="5.41"/>
   <interval begin="800.00" end="900.00" id="e_30" meanTravelTime="118.06" meanOverlapTravelTime="122.87" meanSpeed="5.13" meanHaltsPerVehicle="67.04" meanTimeLoss="78.62" vehicleSum="27" meanSpeedWithin="6.83" meanHaltsPerVehicleWithin="22.58" meanDurationWithin="66.39" vehicleSumWithin="19" meanIntervalSpeedWithin="6.79" meanIntervalHaltsPerVehicleWithin="22.58" meanIntervalDurationWithin="65.35" meanTimeLossWithin="28.33"/>
   <interval begin="800.00" end="900.00" id="e_40" meanTravelTime="69.14" meanOverlapTravelTime="78.25" meanSpeed="6.51" meanHaltsPerVehicle="26.31" meanTimeLoss="34.03" vehicleSum="13" meanSpeedWithin="9.03" meanHaltsPerVehicleWithin="1.46" meanDurationWithin="35.71" vehicleSumWithin="13" meanIntervalSpeedWithin="9.03" meanIntervalHaltsPerVehicleWithin="1.46" meanIntervalDurationWithin="35.71" meanTimeLossWithin="4.84"/>
   <interval begin="900.00" end="1000.00" id="e_10" meanTravelTime="61.96" meanOverlapTravelTime="72.30" meanSpeed="7.33" meanHaltsPerVehicle="21.89" meanTimeLoss="27.98" vehicleSum="19" meanSpeedWithin="7.99" meanHaltsPerVehicleWithin="9.33" meanDurationWithin="45.12" vehicleSumWithin="12" meanIntervalSpeedWithin="7.99" meanIntervalHaltsPerVehicleWithin="9.33" meanIntervalDurationWithin="45.12" meanTimeLossWithin="13.64"/>
   <interval begin="900.00" end="1000.00" id="e_20" meanTravelTime="77.17" meanOverlapTravelTime="85.63" meanSpeed="6.11" meanHaltsPerVehicle="33.35" meanTimeLoss="41.42" vehicleSum="17" meanSpeedWithin="8.89" meanHaltsPerVehicleWithin="2.22" meanDurationWithin="34.66" vehicleSumWithin="9" meanIntervalSpeedWithin="8.89" meanIntervalHaltsPerVehicleWithin="2.22" meanIntervalDurationWithin="34.66" meanTimeLossWithin="5.34"/>
   <interval begin="900.00" end="1000.00" id="e_30" meanTravelTime="83.44" meanOverlapTravelTime="93.21" meanSpeed="5.60" meanHaltsPerVehicle="39.67" meanTimeLoss="49.03" vehicleSum="21" meanSpeedWithin="6.71" meanHaltsPerVehicleWithin="20.80" meanDurationWithin="64.59" vehicleSumWithin="15" meanIntervalSpeedWithin="6.59" meanIntervalHaltsPerVehicleWithin="20.80" meanIntervalDurationWithin="62.18" meanTimeLossWithin="26.45"/>
   <interval begin="900.00" end="1000.00" id="e_40" meanTravelTime="84.19" meanOverlapTravelTime="93.58" meanSpeed="5.40" meanHaltsPerVehicle="41.00" meanTimeLoss="49.31" vehicleSum="15" meanSpeedWithin="8.82" meanHaltsPerVehicleWithin="1.75" meanDurationWithin="36.70" vehicleSumWithin="12" meanIntervalSpeedWithin="8.82" meanIntervalHaltsPerVehicleWithin="1.75" meanIntervalDurationWithin="36.70" meanTimeLossWithin="5.28"/>
   <interval begin="1000.00" end="1100.00" id="e_10" meanTravelTime="64.71" meanOverlapTravelTime="70.55" meanSpeed="7.32" meanHaltsPerVehicle="19.56" meanTimeLoss="26.24" vehicleSum="16" meanSpeedWithin="8.98" meanHaltsPerVehicleWithin="0.00" meanDurationWithin="26.02" vehicleSumWithin="7" meanIntervalSpeedWithin="8.98" meanIntervalHaltsPerVehicleWithin="0.00" meanIntervalDurationWithin="26.02" meanTimeLossWithin="2.68"/>
   <interval begin="1000.00" end="1100.00" id="e_20" meanTravelTime="71.79" meanOverlapTravelTime="83.22" meanSpeed="6.16" meanHaltsPerVehicle="31.00" meanTimeLoss="38.98" vehicleSum="12" meanSpeedWithin="7.92" meanHaltsPerVehicleWithin="7.00" meanDurationWithin="42.14" vehicleSumWithin="18" meanIntervalSpeedWithin="7.92" meanIntervalHaltsPerVehicleWithin="7.00" meanIntervalDurationWithin="42.14" meanTimeLossWithin="10.76"/>
   <interval begin="1000.00" end="1100.00" id="e_30" meanTravelTime="68.91" meanOverlapTravelTime="73.23" meanSpeed="7.20" meanHaltsPerVehicle="20.96" meanTimeLoss="28.93" vehicleSum="23" meanSpeedWithin="8.38" meanHaltsPerVehicleWithin="0.00" meanDurationWithin="21.54" vehicleSumWithin="7" meanIntervalSpeedWithin="8.38" meanIntervalHaltsPerVehicleWithin="0.00" meanIntervalDurationWithin="21.54" meanTimeLossWithin="2.42"/>
   <interval begin="1000.00" end="1100.00" id="e_40" meanTravelTime="75.02" meanOverlapTravelTime="84.07" meanSpeed="6.08" meanHaltsPerVehicle="31.53" meanTimeLoss="39.78" vehicleSum="15" meanSpeedWithin="7.81" meanHaltsPerVehicleWithin="8.61" meanDurationWithin="42.14" vehicleSumWithin="18" meanIntervalSpeedWithin="7.75" meanIntervalHaltsPerVehicleWithin="8.61" meanIntervalDurationWithin="41.06" meanTimeLossWithin="12.25"/>
   <interval begin="1100.00" end="1200.00" id="e_10" meanTravelTime="54.36" meanOverlapTravelTime="63.28" meanSpeed="8.09" meanHaltsPerVehicle="13.18" meanTimeLoss="18.99" vehicleSum="11" meanSpeedWithin="8.14" meanHaltsPerVehicleWithin="5.39" meanDurationWithin="38.30" vehicleSumWithin="18" meanIntervalSpeedWithin="8.14" meanIntervalHaltsPerVehicleWithin="5.39" meanIntervalDurationWithin="38.30" meanTimeLossWithin="9.56"/>
   <interval begin="1100.00" end="1200.00" id="e_20" meanTravelTime="81.26" meanOverlapTravelTime="93.84" meanSpeed="5.58" meanHaltsPerVehicle="42.00" meanTimeLoss="49.55" vehicleSum="12" meanSpeedWithin="6.04" meanHaltsPerVehicleWithin="34.27" meanDurationWithin="76.12" vehicleSumWithin="22" meanIntervalSpeedWithin="5.49" meanIntervalHaltsPerVehicleWithin="34.27" meanIntervalDurationWithin="66.82" meanTimeLossWithin="39.11"/>
   <interval begin="1100.00" end="1200.00" id="e_30" meanTravelTime="59.23" meanOverlapTravelTime="64.66" meanSpeed="7.88" meanHaltsPerVehicle="13.94" meanTimeLoss="20.32" vehicleSum="18" meanSpeedWithin="8.80" meanHaltsPerVehicleWithin="0.00" meanDurationWithin="27.91" vehicleSumWithin="7" meanIntervalSpeedWithin="8.80" meanIntervalHaltsPerVehicleWithin="0.00" meanIntervalDurationWithin="27.91" meanTimeLossWithin="2.85"/>
   <interval begin="1100.00" end="1200.00" id="e_40" meanTravelTime="84.06" meanOverlapTravelTime="93.22" meanSpeed="5.48" meanHaltsPerVehicle="41.19" meanTimeLoss="48.95" vehicleSum="16" meanSpeedWithin="7.13" meanHaltsPerVehicleWithin="19.85" meanDurationWithin="60.87" vehicleSumWithin="20" meanIntervalSpeedWithin="7.11" meanIntervalHaltsPerVehicleWithin="19.85" meanIntervalDurationWithin="59.89" meanTimeLossWithin="25.10"/>
   <interval begin="1200.00" end="1300.00" id="e_10" meanTravelTime="73.70" meanOverlapTravelTime="78.44" meanSpeed="6.65" meanHaltsPerVehicle="25.12" meanTimeLoss="34.18" vehicleSum="26" meanSpeedWithin="8.07" meanHaltsPerVehicleWithin="4.81" meanDurationWithin="36.58" vehicleSumWithin="16" meanIntervalSpeedWithin="8.07" meanIntervalHaltsPerVehicleWithin="4.81" meanIntervalDurationWithin="36.58" meanTimeLossWithin="9.34"/>
   <interval begin="1200.00" end="1300.00" id="e_20" meanTravelTime="120.02" meanOverlapTravelTime="131.47" meanSpeed="4.19" meanHaltsPerVehicle="78.00" meanTimeLoss="87.19" vehicleSum="14" meanSpeedWithin="5.88" meanHaltsPerVehicleWithin="38.96" meanDurationWithin="80.12" vehicleSumWithin="28" meanIntervalSpeedWithin="5.36" meanIntervalHaltsPerVehicleWithin="34.36" meanIntervalDurationWithin="65.47" meanTimeLossWithin="39.29"/>
   <interval begin="1200.00" end="1300.00" id="e_30" meanTravelTime="53.32" meanOverlapTravelTime="58.29" meanSpeed="8.58" meanHaltsPerVehicle="8.00" meanTimeLoss="14.04" vehicleSum="17" meanSpeedWithin="9.36" meanHaltsPerVehicleWithin="0.14" meanDurationWithin="28.78" vehicleSumWithin="7" meanIntervalSpeedWithin="9.36" meanIntervalHaltsPerVehicleWithin="0.14" meanIntervalDurationWithin="28.78" meanTimeLossWithin="2.86"/>
   <interval begin="1200.00" end="1300.00" id="e_40" meanTravelTime="107.15" meanOverlapTravelTime="119.55" meanSpeed="4.19" meanHaltsPerVehicle="65.15" meanTimeLoss="75.21" vehicleSum="13" meanSpeedWithin="6.52" meanHaltsPerVehicleWithin="33.40" meanDurationWithin="80.16" vehicleSumWithin="20" meanIntervalSpeedWithin="6.00" meanIntervalHaltsPerVehicleWithin="32.70" meanIntervalDurationWithin="70.33" meanTimeLossWithin="38.39"/>
   <interval begin="1300.00" end="1400.00" id="e_10" meanTravelTime="63.07" meanOverlapTravelTime="66.62" meanSpeed="7.57" meanHaltsPerVehicle="13.52" meanTimeLoss="22.39" vehicleSum="27" meanSpeedWithin="8.68" meanHaltsPerVehicleWithin="0.00" meanDurationWithin="28.83" vehicleSumWithin="9" meanIntervalSpeedWithin="8.68" meanIntervalHaltsPerVehicleWithin="0.00" meanIntervalDurationWithin="28.83" meanTimeLossWithin="2.84"/>
   <interval begin="1300.00" end="1400.00" id="e_20" meanTravelTime="134.75" meanOverlapTravelTime="148.00" meanSpeed="3.77" meanHaltsPerVehicle="93.42" meanTimeLoss="103.67" vehicleSum="12" meanSpeedWithin="4.89" meanHaltsPerVehicleWithin="61.64" meanDurationWithin="106.51" vehicleSumWithin="33" meanIntervalSpeedWithin="4.11" meanIntervalHaltsPerVehicleWithin="51.39" meanIntervalDurationWithin="79.93" meanTimeLossWithin="56.31"/>
   <interval begin="1300.00" end="1400.00" id="e_30" meanTravelTime="53.48" meanOverlapTravelTime="58.43" meanSpeed="8.57" meanHaltsPerVehicle="8.31" meanTimeLoss="14.23" vehicleSum="13" meanSpeedWithin="8.07" meanHaltsPerVehicleWithin="0.00" meanDurationWithin="19.00" vehicleSumWithin="9" meanIntervalSpeedWithin="8.07" meanIntervalHaltsPerVehicleWithin="0.00" meanIntervalDurationWithin="19.00" meanTimeLossWithin="2.29"/>
   <interval begin="1300.00" end="1400.00" id="e_40" meanTravelTime="120.58" meanOverlapTravelTime="135.04" meanSpeed="3.89" meanHaltsPerVehicle="79.91" meanTimeLoss="90.75" vehicleSum="11" meanSpeedWithin="5.99" meanHaltsPerVehicleWithin="40.72" meanDurationWithin="81.11" vehicleSumWithin="29" meanIntervalSpeedWithin="5.27" meanIntervalHaltsPerVehicleWithin="36.86" meanIntervalDurationWithin="64.59" meanTimeLossWithin="41.18"/>
   <interval begin="1400.00" end="1500.00" id="e_10" meanTravelTime="54.01" meanOverlapTravelTime="59.04" meanSpeed="8.50" meanHaltsPerVehicle="9.14" meanTimeLoss="14.69" vehicleSum="14" meanSpeedWithin="8.56" meanHaltsPerVehicleWithin="0.00" meanDurationWithin="27.75" vehicleSumWithin="11" meanIntervalSpeedWithin="8.56" meanIntervalHaltsPerVehicleWithin="0.00" meanIntervalDurationWithin="27.75" meanTimeLossWithin="2.78"/>
   <interval begin="1400.00" end="1500.00" id="e_20" meanTravelTime="164.53" meanOverlapTravelTime="180.62" meanSpeed="2.88" meanHaltsPerVehicle="122.70" meanTimeLoss="136.34" vehicleSum="10" meanSpeedWithin="4.42" meanHaltsPerVehicleWithin="77.00" meanDurationWithin="120.01" vehicleSumWithin="48" meanIntervalSpeedWithin="3.55" meanIntervalHaltsPerVehicleWithin="55.69" meanIntervalDurationWithin="79.25" meanTimeLossWithin="59.88"/>
   <interval begin="1400.00" end="1500.00" id="e_30" meanTravelTime="53.30" meanOverlapTravelTime="57.53" meanSpeed="8.63" meanHaltsPerVehicle="6.58" meanTimeLoss="13.25" vehicleSum="19" meanSpeedWithin="9.30" meanHaltsPerVehicleWithin="0.38" meanDurationWithin="34.69" vehicleSumWithin="8" meanIntervalSpeedWithin="9.30" meanIntervalHaltsPerVehicleWithin="0.38" meanIntervalDurationWithin="34.69" meanTimeLossWithin="3.61"/>
   <interval begin="1400.00" end="1500.00" id="e_40" meanTravelTime="129.23" meanOverlapTravelTime="147.28" meanSpeed="3.82" meanHaltsPerVehicle="93.44" meanTimeLoss="103.02" vehicleSum="9" meanSpeedWithin="5.33" meanHaltsPerVehicleWithin="58.95" meanDurationWithin="99.28" vehicleSumWithin="42" meanIntervalSpeedWithin="4.51" meanIntervalHaltsPerVehicleWithin="46.14" meanIntervalDurationWithin="69.52" meanTimeLossWithin="50.14"/>
   <interval begin="1500.00" end="1600.00" id="e_10" meanTravelTime="56.08" meanOverlapTravelTime="60.04" meanSpeed="8.39" meanHaltsPerVehicle="9.63" meanTimeLoss="15.79" vehicleSum="19" meanSpeedWithin="9.19" meanHaltsPerVehicleWithin="0.92" meanDurationWithin="35.26" vehicleSumWithin="12" meanIntervalSpeedWithin="9.19" meanIntervalHaltsPerVehicleWithin="0.92" meanIntervalDurationWithin="35.26" meanTimeLossWithin="4.37"/>
   <interval begin="1500.00" end="1600.00" id="e_20" meanTravelTime="224.16" meanOverlapTravelTime="247.84" meanSpeed="2.02" meanHaltsPerVehicle="189.62" meanTimeLoss="203.62" vehicleSum="13" meanSpeedWithin="3.72" meanHaltsPerVehicleWithin="98.27" meanDurationWithin="139.93" vehicleSumWithin="51" meanIntervalSpeedWithin="2.51" meanIntervalHaltsPerVehicleWithin="66.57" meanIntervalDurationWithin="81.48" meanTimeLossWithin="70.77"/>
   <interval begin="1500.00" end="1600.00" id="e_30" meanTravelTime="55.82" meanOverlapTravelTime="61.33" meanSpeed="8.31" meanHaltsPerVehicle="11.53" meanTimeLoss="17.05" vehicleSum="15" meanSpeedWithin="8.68" meanHaltsPerVehicleWithin="0.82" meanDurationWithin="28.80" vehicleSumWithin="17" meanIntervalSpeedWithin="8.68" meanIntervalHaltsPerVehicleWithin="0.82" meanIntervalDurationWithin="28.80" meanTimeLossWithin="3.67"/>
   <interval begin="1500.00" end="1600.00" id="e_40" meanTravelTime="167.00" meanOverlapTravelTime="192.71" meanSpeed="2.80" meanHaltsPerVehicle="136.75" meanTimeLoss="148.54" vehicleSum="12" meanSpeedWithin="3.49" meanHaltsPerVehicleWithin="93.73" meanDurationWithin="138.61" vehicleSumWithin="45" meanIntervalSpeedWithin="2.40" meanIntervalHaltsPerVehicleWithin="68.47" meanIntervalDurationWithin="89.66" meanTimeLossWithin="73.53"/>
   <interval begin="1600.00" end="1700.00" id="e_10" meanTravelTime="59.14" meanOverlapTravelTime="65.73" meanSpeed="7.53" meanHaltsPerVehicle="14.29" meanTimeLoss="21.46" vehicleSum="14" meanSpeedWithin="8.93" meanHaltsPerVehicleWithin="4.08" meanDurationWithin="40.34" vehicleSumWithin="12" meanIntervalSpeedWithin="8.93" meanIntervalHaltsPerVehicleWithin="4.08" meanIntervalDurationWithin="40.34" meanTimeLossWithin="7.52"/>
   <interval begin="1600.00" end="1700.00" id="e_20" meanTravelTime="258.34" meanOverlapTravelTime="270.88" meanSpeed="1.82" meanHaltsPerVehicle="210.15" meanTimeLoss="226.54" vehicleSum="13" meanSpeedWithin="3.23" meanHaltsPerVehicleWithin="115.67" meanDurationWithin="158.72" vehicleSumWithin="58" meanIntervalSpeedWithin="2.35" meanIntervalHaltsPerVehicleWithin="67.38" meanIntervalDurationWithin="86.00" meanTimeLossWithin="72.82"/>
   <interval begin="1600.00" end="1700.00" id="e_30" meanTravelTime="54.00" meanOverlapTravelTime="56.16" meanSpeed="8.85" meanHaltsPerVehicle="6.19" meanTimeLoss="11.94" vehicleSum="27" meanSpeedWithin="7.94" meanHaltsPerVehicleWithin="5.87" meanDurationWithin="41.09" vehicleSumWithin="15" meanIntervalSpeedWithin="7.94" meanIntervalHaltsPerVehicleWithin="5.87" meanIntervalDurationWithin="41.09" meanTimeLossWithin="9.56"/>
   <interval begin="1600.00" end="1700.00" id="e_40" meanTravelTime="218.67" meanOverlapTravelTime="230.50" meanSpeed="2.22" meanHaltsPerVehicle="171.14" meanTimeLoss="186.23" vehicleSum="14" meanSpeedWithin="3.66" meanHaltsPerVehicleWithin="117.46" meanDurationWithin="160.00" vehicleSumWithin="46" meanIntervalSpeedWithin="2.67" meanIntervalHaltsPerVehicleWithin="64.67" meanIntervalDurationWithin="79.47" meanTimeLossWithin="68.84"/>