<configuration>
    <input>
        <net-file value="test.net.xml"/>
        <route-files value="test_604800.rou.xml"/>
		<additional-files value="test.add.xml"/>
    </input>
    <time>
        <begin value="0"/>
        <end value="300"/>
    </time>
	
	<gui_only>
        <gui-settings-file value="test.settings.xml"/>
    </gui_only>
	
	<traci_server>
        <remote-port value="8873"/>
    </traci_server>

</configuration>