<?xml version="1.0" encoding="UTF-8"?>

<!-- generated on 09/02/16 10:55:22 by SUMO netconvert Version 0.26.0
<?xml version="1.0" encoding="UTF-8"?>

<configuration xmlns:xsi="http://www.w3.org/2001/XMLSchema-instance" xsi:noNamespaceSchemaLocation="http://sumo.dlr.de/xsd/netconvertConfiguration.xsd">

    <input>
        <node-files value="test.nod.xml"/>
        <edge-files value="test.edg.xml"/>
        <connection-files value="test.con.xml"/>
    </input>

    <output>
        <output-file value="test.net.xml"/>
    </output>

    <processing>
        <no-turnarounds value="true"/>
    </processing>

</configuration>
-->

<net version="0.25" xmlns:xsi="http://www.w3.org/2001/XMLSchema-instance" xsi:noNamespaceSchemaLocation="http://sumo.dlr.de/xsd/net_file.xsd">

    <location netOffset="500.00,500.00" convBoundary="0.00,0.00,1000.00,1000.00" origBoundary="-500.00,-500.00,500.00,500.00" projParameter="!"/>

    <edge id=":0_0" function="internal">
        <lane id=":0_0_0" index="0" speed="11.11" length="5.00" shape="495.05,508.05 494.86,506.69 494.28,505.73 493.31,505.14 491.95,504.95"/>
    </edge>
    <edge id=":0_1" function="internal">
        <lane id=":0_1_0" index="0" speed="11.11" length="16.10" shape="495.05,508.05 495.05,503.27 495.05,500.00 495.05,496.73 495.05,491.95"/>
        <lane id=":0_1_1" index="1" speed="11.11" length="16.10" shape="498.35,508.05 498.35,503.27 498.35,500.00 498.35,496.73 498.35,491.95"/>
    </edge>
    <edge id=":0_3" function="internal">
        <lane id=":0_3_0" index="0" speed="11.11" length="6.41" shape="498.35,508.05 498.96,503.81 500.05,501.98"/>
    </edge>
    <edge id=":0_16" function="internal">
        <lane id=":0_16_0" index="0" speed="11.11" length="9.23" shape="500.05,501.98 500.78,500.77 503.81,498.96 508.05,498.35"/>
    </edge>
    <edge id=":0_4" function="internal">
        <lane id=":0_4_0" index="0" speed="11.11" length="5.00" shape="508.05,504.95 506.69,505.14 505.73,505.72 505.14,506.69 504.95,508.05"/>
    </edge>
    <edge id=":0_5" function="internal">
        <lane id=":0_5_0" index="0" speed="11.11" length="16.10" shape="508.05,504.95 503.27,504.95 500.00,504.95 496.73,504.95 491.95,504.95"/>
        <lane id=":0_5_1" index="1" speed="11.11" length="16.10" shape="508.05,501.65 503.27,501.65 500.00,501.65 496.73,501.65 491.95,501.65"/>
    </edge>
    <edge id=":0_7" function="internal">
        <lane id=":0_7_0" index="0" speed="11.11" length="6.41" shape="508.05,501.65 503.81,501.04 501.98,499.95"/>
    </edge>
    <edge id=":0_17" function="internal">
        <lane id=":0_17_0" index="0" speed="11.11" length="9.23" shape="501.98,499.95 500.77,499.22 498.96,496.19 498.35,491.95"/>
    </edge>
    <edge id=":0_8" function="internal">
        <lane id=":0_8_0" index="0" speed="11.11" length="5.00" shape="504.95,491.95 505.14,493.31 505.72,494.27 506.69,494.86 508.05,495.05"/>
    </edge>
    <edge id=":0_9" function="internal">
        <lane id=":0_9_0" index="0" speed="11.11" length="16.10" shape="504.95,491.95 504.95,496.73 504.95,500.00 504.95,503.27 504.95,508.05"/>
        <lane id=":0_9_1" index="1" speed="11.11" length="16.10" shape="501.65,491.95 501.65,496.73 501.65,500.00 501.65,503.27 501.65,508.05"/>
    </edge>
    <edge id=":0_11" function="internal">
        <lane id=":0_11_0" index="0" speed="11.11" length="6.41" shape="501.65,491.95 501.04,496.19 499.95,498.02"/>
    </edge>
    <edge id=":0_18" function="internal">
        <lane id=":0_18_0" index="0" speed="11.11" length="9.23" shape="499.95,498.02 499.22,499.23 496.19,501.04 491.95,501.65"/>
    </edge>
    <edge id=":0_12" function="internal">
        <lane id=":0_12_0" index="0" speed="11.11" length="5.00" shape="491.95,495.05 493.31,494.86 494.27,494.28 494.86,493.31 495.05,491.95"/>
    </edge>
    <edge id=":0_13" function="internal">
        <lane id=":0_13_0" index="0" speed="11.11" length="16.10" shape="491.95,495.05 496.73,495.05 500.00,495.05 503.27,495.05 508.05,495.05"/>
        <lane id=":0_13_1" index="1" speed="11.11" length="16.10" shape="491.95,498.35 496.73,498.35 500.00,498.35 503.27,498.35 508.05,498.35"/>
    </edge>
    <edge id=":0_15" function="internal">
        <lane id=":0_15_0" index="0" speed="11.11" length="6.41" shape="491.95,498.35 496.19,498.96 498.02,500.05"/>
    </edge>
    <edge id=":0_19" function="internal">
        <lane id=":0_19_0" index="0" speed="11.11" length="9.23" shape="498.02,500.05 499.23,500.78 501.04,503.81 501.65,508.05"/>
    </edge>

    <edge id="D01" from="0" to="1" priority="-1">
        <lane id="D01_0" index="0" speed="11.11" length="491.95" shape="504.95,508.05 504.95,1000.00"/>
        <lane id="D01_1" index="1" speed="11.11" length="491.95" shape="501.65,508.05 501.65,1000.00"/>
    </edge>
    <edge id="D02" from="0" to="2" priority="-1">
        <lane id="D02_0" index="0" speed="11.11" length="491.95" shape="508.05,495.05 1000.00,495.05"/>
        <lane id="D02_1" index="1" speed="11.11" length="491.95" shape="508.05,498.35 1000.00,498.35"/>
    </edge>
    <edge id="D03" from="0" to="3" priority="-1">
        <lane id="D03_0" index="0" speed="11.11" length="491.95" shape="495.05,491.95 495.05,0.00"/>
        <lane id="D03_1" index="1" speed="11.11" length="491.95" shape="498.35,491.95 498.35,0.00"/>
    </edge>
    <edge id="D04" from="0" to="4" priority="-1">
        <lane id="D04_0" index="0" speed="11.11" length="491.95" shape="491.95,504.95 0.00,504.95"/>
        <lane id="D04_1" index="1" speed="11.11" length="491.95" shape="491.95,501.65 0.00,501.65"/>
    </edge>
    <edge id="D10" from="1" to="0" priority="-1">
        <lane id="D10_0" index="0" speed="11.11" length="491.95" shape="495.05,1000.00 495.05,508.05"/>
        <lane id="D10_1" index="1" speed="11.11" length="491.95" shape="498.35,1000.00 498.35,508.05"/>
    </edge>
    <edge id="D20" from="2" to="0" priority="-1">
        <lane id="D20_0" index="0" speed="11.11" length="491.95" shape="1000.00,504.95 508.05,504.95"/>
        <lane id="D20_1" index="1" speed="11.11" length="491.95" shape="1000.00,501.65 508.05,501.65"/>
    </edge>
    <edge id="D30" from="3" to="0" priority="-1">
        <lane id="D30_0" index="0" speed="11.11" length="491.95" shape="504.95,0.00 504.95,491.95"/>
        <lane id="D30_1" index="1" speed="11.11" length="491.95" shape="501.65,0.00 501.65,491.95"/>
    </edge>
    <edge id="D40" from="4" to="0" priority="-1">
        <lane id="D40_0" index="0" speed="11.11" length="491.95" shape="0.00,495.05 491.95,495.05"/>
        <lane id="D40_1" index="1" speed="11.11" length="491.95" shape="0.00,498.35 491.95,498.35"/>
    </edge>

    <tlLogic id="0" type="static" programID="0" offset="0">
        <phase duration="33" state="GGGgrrrrGGGgrrrr"/>
        <phase duration="3" state="yyygrrrryyygrrrr"/>
        <phase duration="6" state="rrrGrrrrrrrGrrrr"/>
        <phase duration="3" state="rrryrrrrrrryrrrr"/>
        <phase duration="33" state="rrrrGGGgrrrrGGGg"/>
        <phase duration="3" state="rrrryyygrrrryyyg"/>
        <phase duration="6" state="rrrrrrrGrrrrrrrG"/>
        <phase duration="3" state="rrrrrrryrrrrrrry"/>
    </tlLogic>

    <junction id="0" type="traffic_light" x="500.00" y="500.00" incLanes="D10_0 D10_1 D20_0 D20_1 D30_0 D30_1 D40_0 D40_1" intLanes=":0_0_0 :0_1_0 :0_1_1 :0_16_0 :0_4_0 :0_5_0 :0_5_1 :0_17_0 :0_8_0 :0_9_0 :0_9_1 :0_18_0 :0_12_0 :0_13_0 :0_13_1 :0_19_0" shape="493.45,508.05 506.55,508.05 508.05,506.55 508.05,493.45 506.55,491.95 493.45,491.95 491.95,493.45 491.95,506.55">
        <request index="0" response="0000000000000000" foes="0000100001100000" cont="0"/>
        <request index="1" response="0000000000000000" foes="1111100011100000" cont="0"/>
        <request index="2" response="0000000000000000" foes="1111100011100000" cont="0"/>
        <request index="3" response="0000011100000000" foes="1110011111100000" cont="1"/>
        <request index="4" response="0000011000000000" foes="1000011000000000" cont="0"/>
        <request index="5" response="0000111000001111" foes="1000111000001111" cont="0"/>
        <request index="6" response="0000111000001111" foes="1000111000001111" cont="0"/>
        <request index="7" response="0111111000001110" foes="0111111000001110" cont="1"/>
        <request index="8" response="0000000000000000" foes="0110000000001000" cont="0"/>
        <request index="9" response="0000000000000000" foes="1110000011111000" cont="0"/>
        <request index="10" response="0000000000000000" foes="1110000011111000" cont="0"/>
        <request index="11" response="0000000000000111" foes="1110000011100111" cont="1"/>
        <request index="12" response="0000000000000110" foes="0000000010000110" cont="0"/>
        <request index="13" response="0000111100001110" foes="0000111110001110" cont="0"/>
        <request index="14" response="0000111100001110" foes="0000111110001110" cont="0"/>
        <request index="15" response="0000111001111110" foes="0000111001111110" cont="1"/>
    </junction>
    <junction id="1" type="unregulated" x="500.00" y="1000.00" incLanes="D01_0 D01_1" intLanes="" shape="499.95,1000.00 493.45,1000.00 506.55,1000.00 500.05,1000.00"/>
    <junction id="2" type="unregulated" x="1000.00" y="500.00" incLanes="D02_0 D02_1" intLanes="" shape="1000.00,500.05 1000.00,506.55 1000.00,493.45 1000.00,499.95"/>
    <junction id="3" type="unregulated" x="500.00" y="0.00" incLanes="D03_0 D03_1" intLanes="" shape="500.05,0.00 506.55,0.00 493.45,0.00 499.95,0.00"/>
    <junction id="4" type="unregulated" x="0.00" y="500.00" incLanes="D04_0 D04_1" intLanes="" shape="0.00,499.95 0.00,493.45 0.00,506.55 0.00,500.05"/>

    <junction id=":0_16_0" type="internal" x="500.05" y="501.98" incLanes=":0_3_0 D30_0 D30_1" intLanes=":0_5_0 :0_5_1 :0_7_0 :0_8_0 :0_9_0 :0_9_1 :0_13_0 :0_13_1 :0_15_0"/>
    <junction id=":0_17_0" type="internal" x="501.98" y="499.95" incLanes=":0_7_0 D40_0 D40_1" intLanes=":0_1_0 :0_1_1 :0_3_0 :0_9_0 :0_9_1 :0_11_0 :0_12_0 :0_13_0 :0_13_1"/>
    <junction id=":0_18_0" type="internal" x="499.95" y="498.02" incLanes=":0_11_0 D10_0 D10_1" intLanes=":0_0_0 :0_1_0 :0_1_1 :0_5_0 :0_5_1 :0_7_0 :0_13_0 :0_13_1 :0_15_0"/>
    <junction id=":0_19_0" type="internal" x="498.02" y="500.05" incLanes=":0_15_0 D20_0 D20_1" intLanes=":0_1_0 :0_1_1 :0_3_0 :0_4_0 :0_5_0 :0_5_1 :0_9_0 :0_9_1 :0_11_0"/>

    <connection from="D10" to="D04" fromLane="0" toLane="0" via=":0_0_0" tl="0" linkIndex="0" dir="r" state="o"/>
    <connection from="D10" to="D03" fromLane="0" toLane="0" via=":0_1_0" tl="0" linkIndex="1" dir="s" state="o"/>
    <connection from="D10" to="D03" fromLane="1" toLane="1" via=":0_1_1" tl="0" linkIndex="2" dir="s" state="o"/>
    <connection from="D10" to="D02" fromLane="1" toLane="1" via=":0_3_0" tl="0" linkIndex="3" dir="l" state="o"/>
    <connection from="D20" to="D01" fromLane="0" toLane="0" via=":0_4_0" tl="0" linkIndex="4" dir="r" state="o"/>
    <connection from="D20" to="D04" fromLane="0" toLane="0" via=":0_5_0" tl="0" linkIndex="5" dir="s" state="o"/>
    <connection from="D20" to="D04" fromLane="1" toLane="1" via=":0_5_1" tl="0" linkIndex="6" dir="s" state="o"/>
    <connection from="D20" to="D03" fromLane="1" toLane="1" via=":0_7_0" tl="0" linkIndex="7" dir="l" state="o"/>
    <connection from="D30" to="D02" fromLane="0" toLane="0" via=":0_8_0" tl="0" linkIndex="8" dir="r" state="o"/>
    <connection from="D30" to="D01" fromLane="0" toLane="0" via=":0_9_0" tl="0" linkIndex="9" dir="s" state="o"/>
    <connection from="D30" to="D01" fromLane="1" toLane="1" via=":0_9_1" tl="0" linkIndex="10" dir="s" state="o"/>
    <connection from="D30" to="D04" fromLane="1" toLane="1" via=":0_11_0" tl="0" linkIndex="11" dir="l" state="o"/>
    <connection from="D40" to="D03" fromLane="0" toLane="0" via=":0_12_0" tl="0" linkIndex="12" dir="r" state="o"/>
    <connection from="D40" to="D02" fromLane="0" toLane="0" via=":0_13_0" tl="0" linkIndex="13" dir="s" state="o"/>
    <connection from="D40" to="D02" fromLane="1" toLane="1" via=":0_13_1" tl="0" linkIndex="14" dir="s" state="o"/>
    <connection from="D40" to="D01" fromLane="1" toLane="1" via=":0_15_0" tl="0" linkIndex="15" dir="l" state="o"/>

    <connection from=":0_0" to="D04" fromLane="0" toLane="0" dir="s" state="M"/>
    <connection from=":0_1" to="D03" fromLane="0" toLane="0" dir="s" state="M"/>
    <connection from=":0_1" to="D03" fromLane="1" toLane="1" dir="s" state="M"/>
    <connection from=":0_3" to="D02" fromLane="0" toLane="1" via=":0_16_0" dir="s" state="m"/>
    <connection from=":0_16" to="D02" fromLane="0" toLane="1" dir="s" state="M"/>
    <connection from=":0_4" to="D01" fromLane="0" toLane="0" dir="s" state="M"/>
    <connection from=":0_5" to="D04" fromLane="0" toLane="0" dir="s" state="M"/>
    <connection from=":0_5" to="D04" fromLane="1" toLane="1" dir="s" state="M"/>
    <connection from=":0_7" to="D03" fromLane="0" toLane="1" via=":0_17_0" dir="s" state="m"/>
    <connection from=":0_17" to="D03" fromLane="0" toLane="1" dir="s" state="M"/>
    <connection from=":0_8" to="D02" fromLane="0" toLane="0" dir="s" state="M"/>
    <connection from=":0_9" to="D01" fromLane="0" toLane="0" dir="s" state="M"/>
    <connection from=":0_9" to="D01" fromLane="1" toLane="1" dir="s" state="M"/>
    <connection from=":0_11" to="D04" fromLane="0" toLane="1" via=":0_18_0" dir="s" state="m"/>
    <connection from=":0_18" to="D04" fromLane="0" toLane="1" dir="s" state="M"/>
    <connection from=":0_12" to="D03" fromLane="0" toLane="0" dir="s" state="M"/>
    <connection from=":0_13" to="D02" fromLane="0" toLane="0" dir="s" state="M"/>
    <connection from=":0_13" to="D02" fromLane="1" toLane="1" dir="s" state="M"/>
    <connection from=":0_15" to="D01" fromLane="0" toLane="1" via=":0_19_0" dir="s" state="m"/>
    <connection from=":0_19" to="D01" fromLane="0" toLane="1" dir="s" state="M"/>

</net>
